/*--------------------------------*- C++ -*----------------------------------*\
| =========                 |                                                 |
| \\      /  F ield         | OpenFOAM: The Open Source CFD Toolbox           |
|  \\    /   O peration     | Version:  v2006                                 |
|   \\  /    A nd           | Website:  www.openfoam.com                      |
|    \\/     M anipulation  |                                                 |
\*---------------------------------------------------------------------------*/
FoamFile
{
    version     2.0;
    format      ascii;
    class       volScalarField;
    location    "0";
    object      omega;
}
// * * * * * * * * * * * * * * * * * * * * * * * * * * * * * * * * * * * * * //

dimensions      [0 0 -1 0 0 0 0];


internalField   uniform 1;

boundaryField
{
    farfields
    {
        type            inletOutlet;
        inletValue      uniform 1;
        value           uniform 1;
    }
    lowerWall
    {
        type            slip;
    }
    duct
    {
        type            omegaWallFunction;
        value           uniform 1;
    }
    defaultFaces
    {
        type            empty;
    }
    fan_in
    {
        type            cyclic;
    }
    fan_out
    {
        type            cyclic;
    }
}


// ************************************************************************* //
